case123_1.m
function mpc = case_ieee123
%   Power flow data for IEEE 123 bus test case.
%   Please see CASEFORMAT for details on the case file format.
%
%	This testbed is distributed in the hope that it will be useful, but without any warranty.
%	We do request that publications in which this testbed is adopted, explicitly acknowledge that fact by citing:
%
%	S. Bolognani, S. Zampieri (2014)
%	"On the existence and linear approximation of the power flow solution in power distribution networks"
%	Preprint available at http://arxiv.org/abs/1403.5031

%% MATPOWER Case Format : Version 2
mpc.version = '2';

%%-----  Power Flow Data  -----%%
%% system MVA base
mpc.baseMVA = 1;

%% bus data
%	bus_i	type	Pd	Qd	Gs	Bs	area	Vm	Va	baseKV	zone	Vmax	Vmin
mpc.bus = [
	1	1	0.160	0.080	0.000	0.000	1	1	0	4.16	1	1.1	0.9	;
	7	1	0.020	0.010	0.000	0.000	1	1	0	4.16	1	1.1	0.9	;
	8	1	0.120	0.060	0.000	0.000	1	1	0	4.16	1	1.1	0.9	;
	13	1	0.100	0.050	0.000	0.000	1	1	0	4.16	1	1.1	0.9	;
	52	1	0.040	0.020	0.000	0.000	1	1	0	4.16	1	1.1	0.9	;
	53	1	0.040	0.020	0.000	0.000	1	1	0	4.16	1	1.1	0.9	;
	54	1	0.000	0.000	0.000	0.000	1	1	0	4.16	1	1.1	0.9	;
	55	1	0.020	0.010	0.000	0.000	1	1	0	4.16	1	1.1	0.9	;
	56	1	0.020	0.010	0.000	0.000	1	1	0	4.16	1	1.1	0.9	;
	57	1	0.040	0.020	0.000	0.000	1	1	0	4.16	1	1.1	0.9	;
	60	1	0.020	0.010	0.000	0.000	1	1	0	4.16	1	1.1	0.9	;
	62	1	0.040	0.020	0.000	0.000	1	1	0	4.16	1	1.1	0.9	;
	63	1	0.040	0.020	0.000	0.000	1	1	0	4.16	1	1.1	0.9	;
	64	1	0.075	0.035	0.000	0.000	1	1	0	4.16	1	1.1	0.9	;
	65	1	0.140	0.100	0.000	0.000	1	1	0	4.16	1	1.1	0.9	;
	66	1	0.075	0.035	0.000	0.000	1	1	0	4.16	1	1.1	0.9	;
	67	1	0.120	0.060	0.000	0.000	1	1	0	4.16	1	1.1	0.9	;
	72	1	0.120	0.060	0.000	0.000	1	1	0	4.16	1	1.1	0.9	;
	76	1	0.245	0.180	0.000	0.000	1	1	0	4.16	1	1.1	0.9	;
	77	1	0.040	0.020	0.000	0.000	1	1	0	4.16	1	1.1	0.9	;
	78	1	0.000	0.000	0.000	0.000	1	1	0	4.16	1	1.1	0.9	;
	79	1	0.040	0.020	0.000	0.000	1	1	0	4.16	1	1.1	0.9	;
	80	1	0.040	0.020	0.000	0.000	1	1	0	4.16	1	1.1	0.9	;
	81	1	0.060	0.030	0.000	0.000	1	1	0	4.16	1	1.1	0.9	;
	82	1	0.040	0.020	0.000	0.000	1	1	0	4.16	1	1.1	0.9	;
	83	1	0.020	0.010	0.000	0.000	1	1	0	4.16	1	1.1	0.9	;
	86	1	0.020	0.010	0.000	0.000	1	1	0	4.16	1	1.1	0.9	;
	87	1	0.080	0.040	0.000	0.000	1	1	0	4.16	1	1.1	0.9	;
	89	1	0.040	0.020	0.000	0.000	1	1	0	4.16	1	1.1	0.9	;
	91	1	0.040	0.020	0.000	0.000	1	1	0	4.16	1	1.1	0.9	;
	93	1	0.040	0.020	0.000	0.000	1	1	0	4.16	1	1.1	0.9	;
	95	1	0.040	0.020	0.000	0.000	1	1	0	4.16	1	1.1	0.9	;
	97	1	0.000	0.000	0.000	0.000	1	1	0	4.16	1	1.1	0.9	;
	98	1	0.040	0.020	0.000	0.000	1	1	0	4.16	1	1.1	0.9	;
	99	1	0.040	0.020	0.000	0.000	1	1	0	4.16	1	1.1	0.9	;
	100	1	0.040	0.020	0.000	0.000	1	1	0	4.16	1	1.1	0.9	;
	101	1	0.100	0.050	0.000	0.000	1	1	0	4.16	1	1.1	0.9	;
	105	1	0.080	0.040	0.000	0.000	1	1	0	4.16	1	1.1	0.9	;
	108	1	0.140	0.070	0.000	0.000	1	1	0	4.16	1	1.1	0.9	;
	18	1	0.080	0.040	0.000	0.000	1	1	0	4.16	1	1.1	0.9	;
	21	1	0.040	0.020	0.000	0.000	1	1	0	4.16	1	1.1	0.9	;
	23	1	0.040	0.020	0.000	0.000	1	1	0	4.16	1	1.1	0.9	;
	25	1	0.080	0.040	0.000	0.000	1	1	0	4.16	1	1.1	0.9	;
	28	1	0.040	0.020	0.000	0.000	1	1	0	4.16	1	1.1	0.9	;
	29	1	0.040	0.020	0.000	0.000	1	1	0	4.16	1	1.1	0.9	;
	30	1	0.040	0.020	0.000	0.000	1	1	0	4.16	1	1.1	0.9	;
	35	1	0.120	0.060	0.000	0.000	1	1	0	4.16	1	1.1	0.9	;
	40	1	0.020	0.010	0.000	0.000	1	1	0	4.16	1	1.1	0.9	;
	42	1	0.060	0.030	0.000	0.000	1	1	0	4.16	1	1.1	0.9	;
	44	1	0.040	0.020	0.000	0.000	1	1	0	4.16	1	1.1	0.9	;
	47	1	0.105	0.075	0.000	0.000	1	1	0	4.16	1	1.1	0.9	;
	48	1	0.210	0.150	0.000	0.000	1	1	0	4.16	1	1.1	0.9	;
	49	1	0.140	0.095	0.000	0.000	1	1	0	4.16	1	1.1	0.9	;
	50	1	0.040	0.020	0.000	0.000	1	1	0	4.16	1	1.1	0.9	;
	51	1	0.020	0.010	0.000	0.000	1	1	0	4.16	1	1.1	0.9	;
	150	3	0.000	0.000	0.000	0.000	1	1	0	4.16	1	1.1	0.9	;


	%% Buses missing from original 123 bus case--no load for now
	
	61	1	0.000	0.000	0.000	0.000	1	1	0	4.16	1	1.1	0.9	;
	94	1	0.000	0.000	0.000	0.000	1	1	0	4.16	1	1.1	0.9	;
	135	1	0.000	0.000	0.000	0.000	1	1	0	4.16	1	1.1	0.9	;
	149	1	0.000	0.000	0.000	0.000	1	1	0	4.16	1	1.1	0.9	;
	151	1	0.000	0.000	0.000	0.000	1	1	0	4.16	1	1.1	0.9	;
	152	1	0.000	0.000	0.000	0.000	1	1	0	4.16	1	1.1	0.9	;
	160	1	0.000	0.000	0.000	0.000	1	1	0	4.16	1	1.1	0.9	;
	195	1	0.000	0.000	0.000	0.000	1	1	0	4.16	1	1.1	0.9	;
	197	1	0.000	0.000	0.000	0.000	1	1	0	4.16	1	1.1	0.9	;
	250	1	0.000	0.000	0.000	0.000	1	1	0	4.16	1	1.1	0.9	;
	251	1	0.000	0.000	0.000	0.000	1	1	0	4.16	1	1.1	0.9	;
	300	1	0.000	0.000	0.000	0.000	1	1	0	4.16	1	1.1	0.9	;
	350	1	0.000	0.000	0.000	0.000	1	1	0	4.16	1	1.1	0.9	;
	450	1	0.000	0.000	0.000	0.000	1	1	0	4.16	1	1.1	0.9	;
	451	1	0.000	0.000	0.000	0.000	1	1	0	4.16	1	1.1	0.9	;
	%610	1	0.000	0.000	0.000	0.000	1	1	0	4.16	1	1.1	0.9	;
];

%% generator data
%	bus	Pg	Qg	Qmax	Qmin	Vg	mBase	status	Pmax	Pmin	Pc1	Pc2	Qc1min	Qc1max	Qc2min	Qc2max	ramp_agc	ramp_10	ramp_30	ramp_q	apf
mpc.gen = [
	150	0	0	200	-200	1	1	1	200	-200	0	0	0	0	0	0	0	0	0	0	0;

	% additional generators
	195	0	0	200	-200	1	1	1	200	-200	0	0	0	0	0	0	0	0	0	0	0;
	251	0	0	200	-200	1	1	1	200	-200	0	0	0	0	0	0	0	0	0	0	0;
	350	0	0	200	-200	1	1	1	200	-200	0	0	0	0	0	0	0	0	0	0	0;
	451	0	0	200	-200	1	1	1	200	-200	0	0	0	0	0	0	0	0	0	0	0;
%	610	0	0	200	-200	1	1	1	200	-200	0	0	0	0	0	0	0	0	0	0	0;
];

%% branch data
%	fbus	tbus	r	x	b	rateA	rateB	rateC	ratio	angle	status	angmin	angmax
mpc.branch = [
%	1	150	0.0013398623	0.0027450827	3.02770271595392E-008	100	100	100	0	0	1	-360	360	;
	1	7	0.0010048967	0.0020588120	2.27077703696544E-008	100	100	100	0	0	1	-360	360	;
	7	8	0.0006699312	0.0013725413	1.51385135797696E-008	100	100	100	0	0	1	-360	360	;
	8	13	0.0010048967	0.0020588120	2.27077703696544E-008	100	100	100	0	0	1	-360	360	;
%	13	52	0.0013398623	0.0027450827	3.02770271595392E-008	100	100	100	0	0	1	-360	360	;
	52	53	0.0006699312	0.0013725413	1.51385135797696E-008	100	100	100	0	0	1	-360	360	;
	53	54	0.0004187070	0.0008578383	9.46157098735599E-009	100	100	100	0	0	1	-360	360	;
	54	55	0.0009211553	0.0018872444	2.08154561721832E-008	100	100	100	0	0	1	-360	360	;
	55	56	0.0009211553	0.0018872444	2.08154561721832E-008	100	100	100	0	0	1	-360	360	;
	54	57	0.0011723795	0.0024019474	2.64923987645968E-008	100	100	100	0	0	1	-360	360	;
	57	60	0.0025122418	0.0051470300	5.67694259241360E-008	100	100	100	0	0	1	-360	360	;
	60	62	0.0027749546	0.0013221274	1.83926822251266E-007	100	100	100	0	0	1	-360	360	;
	62	63	0.0019424682	0.0009254892	1.28748775575886E-007	100	100	100	0	0	1	-360	360	;
	63	64	0.0038849364	0.0018509784	2.57497551151773E-007	100	100	100	0	0	1	-360	360	;
	64	65	0.0047174228	0.0022476166	3.12675597827153E-007	100	100	100	0	0	1	-360	360	;
	65	66	0.0036074409	0.0017187657	2.39104868926646E-007	100	100	100	0	0	1	-360	360	;
%	60	67	0.0011723795	0.0024019474	2.64923987645968E-008	100	100	100	0	0	1	-360	360	;
	67	72	0.0009211553	0.0018872444	2.08154561721832E-008	100	100	100	0	0	1	-360	360	;
	72	76	0.0006699312	0.0013725413	1.51385135797696E-008	100	100	100	0	0	1	-360	360	;
	76	77	0.0013398623	0.0027450827	3.02770271595392E-008	100	100	100	0	0	1	-360	360	;
	77	78	0.0003349656	0.0006862707	7.56925678988480E-009	100	100	100	0	0	1	-360	360	;
	78	79	0.0007536726	0.0015441090	1.70000000000000E-008	100	100	100	0	0	1	-360	360	;
	78	80	0.0015910865	0.0032597857	3.60000000000000E-008	100	100	100	0	0	1	-360	360	;
	80	81	0.0015910865	0.0032597857	3.60000000000000E-008	100	100	100	0	0	1	-360	360	;
	81	82	0.0008374139	0.0017156767	1.89231419747120E-008	100	100	100	0	0	1	-360	360	;
	82	83	0.0008374139	0.0017156767	1.89231419747120E-008	100	100	100	0	0	1	-360	360	;
	76	86	0.0023447590	0.0048038947	5.30000000000000E-008	100	100	100	0	0	1	-360	360	;
	86	87	0.0015073451	0.0030882180	3.40616555544816E-008	100	100	100	0	0	1	-360	360	;
	87	89	0.0009211553	0.0018872444	2.08154561721832E-008	100	100	100	0	0	1	-360	360	;
	89	91	0.0007536726	0.0015441090	1.70000000000000E-008	100	100	100	0	0	1	-360	360	;
	91	93	0.0007536726	0.0015441090	1.70000000000000E-008	100	100	100	0	0	1	-360	360	;
	93	95	0.0010048967	0.0020588120	2.27077703696544E-008	100	100	100	0	0	1	-360	360	;
	67	97	0.0008374139	0.0017156767	1.89231419747120E-008	100	100	100	0	0	1	-360	360	;
	97	98	0.0009211553	0.0018872444	2.08154561721832E-008	100	100	100	0	0	1	-360	360	;
	98	99	0.0018423107	0.0037744887	4.16309123443664E-008	100	100	100	0	0	1	-360	360	;
	99	100	0.0010048967	0.0020588120	2.27077703696544E-008	100	100	100	0	0	1	-360	360	;
%	97	101	0.0008374139	0.0017156767	1.89231419747120E-008	100	100	100	0	0	1	-360	360	;
	101	105	0.0009211553	0.0018872444	2.08154561721832E-008	100	100	100	0	0	1	-360	360	;
	105	108	0.0010886381	0.0022303797	2.46000845671256E-008	100	100	100	0	0	1	-360	360	;
	13	18	0.0027634660	0.0056617331	6.24463685165496E-008	100	100	100	0	0	1	-360	360	;
	18	21	0.0010048967	0.0020588120	2.27077703696544E-008	100	100	100	0	0	1	-360	360	;
	21	23	0.0008374139	0.0017156767	1.89231419747120E-008	100	100	100	0	0	1	-360	360	;
	23	25	0.0009211553	0.0018872444	2.08154561721832E-008	100	100	100	0	0	1	-360	360	;
	25	28	0.0006699312	0.0013725413	1.51385135797696E-008	100	100	100	0	0	1	-360	360	;
	28	29	0.0010048967	0.0020588120	2.27077703696544E-008	100	100	100	0	0	1	-360	360	;
	29	30	0.0011723795	0.0024019474	2.64923987645968E-008	100	100	100	0	0	1	-360	360	;
%	18	35	0.0012561209	0.0025735150	2.83847129620680E-008	100	100	100	0	0	1	-360	360	;
	35	40	0.0008374139	0.0017156767	1.89231419747120E-008	100	100	100	0	0	1	-360	360	;
	40	42	0.0008374139	0.0017156767	1.89231419747120E-008	100	100	100	0	0	1	-360	360	;
	42	44	0.0006699312	0.0013725413	1.51385135797696E-008	100	100	100	0	0	1	-360	360	;
	44	47	0.0008374139	0.0017156767	1.89231419747120E-008	100	100	100	0	0	1	-360	360	;
	47	48	0.0005024484	0.0010294060	1.13538851848272E-008	100	100	100	0	0	1	-360	360	;
	47	49	0.0008374139	0.0017156767	1.89231419747120E-008	100	100	100	0	0	1	-360	360	;
	49	50	0.0008374139	0.0017156767	1.89231419747120E-008	100	100	100	0	0	1	-360	360	;
	50	51	0.0008374139	0.0017156767	1.89231419747120E-008	100	100	100	0	0	1	-360	360	;
	
	% Intermediate branches missing from original 123 bus case--all branch parameters are copies of the (1,150) branch from the original case
	
	1	149	0.0013398623	0.0027450827	3.02770271595392E-008	100	100	100	0	0	1	-360	360	;
	30	250	0.0013398623	0.0027450827	3.02770271595392E-008	100	100	100	0	0	1	-360	360	;
	35	135	0.0013398623	0.0027450827	3.02770271595392E-008	100	100	100	0	0	1	-360	360	;
	52	152	0.0013398623	0.0027450827	3.02770271595392E-008	100	100	100	0	0	1	-360	360	;
	93	94	0.0013398623	0.0027450827	3.02770271595392E-008	100	100	100	0	0	1	-360	360	;
	51	151	0.0013398623	0.0027450827	3.02770271595392E-008	100	100	100	0	0	1	-360	360	;
	108	300	0.0013398623	0.0027450827	3.02770271595392E-008	100	100	100	0	0	1	-360	360	;
	101	197	0.0013398623	0.0027450827	3.02770271595392E-008	100	100	100	0	0	1	-360	360	;
	100	450	0.0013398623	0.0027450827	3.02770271595392E-008	100	100	100	0	0	1	-360	360	;
	67	160	0.0013398623	0.0027450827	3.02770271595392E-008	100	100	100	0	0	1	-360	360	;
	60	61	0.0013398623	0.0027450827	3.02770271595392E-008	100	100	100	0	0	1	-360	360	;

	% Switched branches missing from original 123 bus case--again all branch parameters are copies of the (1,150) branch from the original case

	149	150	0.0013398623	0.0027450827	3.02770271595392E-008	100	100	100	0	0	1	-360	360	;
	18	135	0.0013398623	0.0027450827	3.02770271595392E-008	100	100	100	0	0	1	-360	360	;
	13	152	0.0013398623	0.0027450827	3.02770271595392E-008	100	100	100	0	0	1	-360	360	;
	54	94	0.0013398623	0.0027450827	3.02770271595392E-008	100	100	100	0	0	1	-360	360	;
	151	300	0.0013398623	0.0027450827	3.02770271595392E-008	100	100	100	0	0	1	-360	360	;
	300	350	0.0013398623	0.0027450827	3.02770271595392E-008	100	100	100	0	0	1	-360	360	;
	97	197	0.0013398623	0.0027450827	3.02770271595392E-008	100	100	100	0	0	1	-360	360	;
	450	451	0.0013398623	0.0027450827	3.02770271595392E-008	100	100	100	0	0	1	-360	360	;
%	61	610	0.0013398623	0.0027450827	3.02770271595392E-008	100	100	100	0	0	1	-360	360	;
	60	160	0.0013398623	0.0027450827	3.02770271595392E-008	100	100	100	0	0	1	-360	360	;
	95	195	0.0013398623	0.0027450827	3.02770271595392E-008	100	100	100	0	0	1	-360	360	;
	250	251	0.0013398623	0.0027450827	3.02770271595392E-008	100	100	100	0	0	1	-360	360	;
	

];

%%-----  OPF Data  -----%%
%% generator cost data
%	1	startup	shutdown	n	x1	y1	...	xn	yn
%	2	startup	shutdown	n	c(n-1)	...	c0
mpc.gencost = [
%	2	0	0	3	0.01	40	0;
	2	0	0	3	0.01	40	0;
	2	0	0	3	0.01	40	0;
	2	0	0	3	0.01	40	0;
	2	0	0	3	0.01	40	0;
	2	0	0	3	0.01	40	0;
];
